*****
 OpenBabel05052311363D

 11 10  0  0  0  0  0  0  0  0999 V2000
   -0.8871    0.1751   -0.0125 C   0  0  0  0  0  0  0  0  0  0  0  0
    0.4605   -0.5155   -0.0465 C   0  0  0  0  0  0  0  0  0  0  0  0
    1.4430    0.3073    0.5656 C   0  0  0  0  0  0  0  0  0  0  0  0
   -0.8475    1.1278   -0.5508 H   0  0  0  0  0  0  0  0  0  0  0  0
   -1.6588   -0.4533   -0.4658 H   0  0  0  0  0  0  0  0  0  0  0  0
   -1.1769    0.4037    1.0183 H   0  0  0  0  0  0  0  0  0  0  0  0
    0.7687   -0.7243   -1.0755 H   0  0  0  0  0  0  0  0  0  0  0  0
    0.4195   -1.4621    0.5002 H   0  0  0  0  0  0  0  0  0  0  0  0
    1.5005    1.2409    0.0460 H   0  0  0  0  0  0  0  0  0  0  0  0
    2.3936   -0.1823    0.5255 H   0  0  0  0  0  0  0  0  0  0  0  0
    1.1752    0.4832    1.5865 H   0  0  0  0  0  0  0  0  0  0  0  0
  1  2  1  0  0  0  0
  1  4  1  0  0  0  0
  1  5  1  0  0  0  0
  1  6  1  0  0  0  0
  2  3  1  0  0  0  0
  2  7  1  0  0  0  0
  2  8  1  0  0  0  0
  3  9  1  0  0  0  0
  3 10  1  0  0  0  0
  3 11  1  0  0  0  0
M  END
$$$$
